Version 4
SHEET 1 880 680
WIRE -304 -128 -432 -128
WIRE -144 -128 -224 -128
WIRE 80 -128 -144 -128
WIRE 192 -128 144 -128
WIRE 336 -128 272 -128
WIRE -432 -64 -432 -128
WIRE 336 -48 336 -128
WIRE -144 0 -144 -128
WIRE -192 80 -256 80
WIRE -432 128 -432 16
WIRE -144 128 -144 96
WIRE -144 128 -432 128
WIRE 336 128 336 16
WIRE 336 128 -144 128
WIRE -144 144 -144 128
WIRE -256 192 -256 80
WIRE -256 288 -256 272
FLAG -144 144 0
FLAG -256 288 0
SYMBOL voltage -432 -80 R0
WINDOW 123 0 0 Left 2
WINDOW 39 24 44 Left 2
SYMATTR InstName V1
SYMATTR Value 12
SYMBOL ind -320 -112 R270
WINDOW 0 32 56 VTop 2
WINDOW 3 5 56 VBottom 2
SYMATTR InstName L1
SYMATTR Value 100µ
SYMATTR SpiceLine Ipk=4 Rser=0.106 Rpar=9420 Cpar=0 mfg="Coilcraft" pn="MSS1210-104"
SYMBOL diode 80 -112 R270
WINDOW 0 32 32 VTop 2
WINDOW 3 0 32 VBottom 2
SYMATTR InstName D1
SYMBOL polcap 320 -48 R0
WINDOW 3 24 56 Left 2
SYMATTR InstName C1
SYMATTR Value 10µ
SYMATTR Description Capacitor
SYMATTR Type cap
SYMATTR SpiceLine V=300 Irms=1.33 Rser=0.047 Lser=0
SYMBOL res 176 -112 R270
WINDOW 0 32 56 VTop 2
WINDOW 3 0 56 VBottom 2
SYMATTR InstName R2
SYMATTR Value 360
SYMBOL nmos -192 0 R0
SYMATTR InstName M1
SYMATTR Value IRFP250N
SYMBOL voltage -256 176 R0
WINDOW 123 0 0 Left 2
WINDOW 39 0 0 Left 2
SYMATTR InstName V2
SYMATTR Value PULSE(0 5 0 0 0 .09m .1m)
TEXT -466 168 Left 2 !.tran 0 .2 0 .001
