* Cree XLAMP CMA3090 72V White LED
* Model valid for 333mA to 2400mA
.MODEL CMA255072WHT D
+ IS=1.2248e-021
+ N=52.643
+ RS=3.0506
+ XTI=2552.05218
+ IKF=0
+ EG=2.5000