* Cree XLAMP CMA3090 48V White LED
* Model valid for 500mA to 3600mA
.MODEL CMA255048WHT D
+ IS=3.2848e-021
+ N=35.526
+ RS=1.3515
+ XTI=1671.62956
+ IKF=0
+ EG=2.5000